new load.hv_f0_lv0_f0_c0 phases=1 bus1=hv_f0_lv0_f0_c0.1 conn=w kv=0.23 kw=1 kvar=1 model=1 status=variable daily=Load_shape_172 vminpu=0.5 vmaxpu=1.5
new load.hv_f0_lv0_f0_c1 phases=1 bus1=hv_f0_lv0_f0_c1.2 conn=w kv=0.23 kw=1 kvar=1 model=1 status=variable daily=Load_shape_47 vminpu=0.5 vmaxpu=1.5
new load.hv_f0_lv0_f0_c2 phases=1 bus1=hv_f0_lv0_f0_c2.3 conn=w kv=0.23 kw=1 kvar=1 model=1 status=variable daily=Load_shape_117 vminpu=0.5 vmaxpu=1.5
new load.hv_f0_lv0_f0_c3 phases=1 bus1=hv_f0_lv0_f0_c3.1 conn=w kv=0.23 kw=1 kvar=1 model=1 status=variable daily=Load_shape_192 vminpu=0.5 vmaxpu=1.5
new load.hv_f0_lv0_f0_c4 phases=1 bus1=hv_f0_lv0_f0_c4.2 conn=w kv=0.23 kw=1 kvar=1 model=1 status=variable daily=Load_shape_323 vminpu=0.5 vmaxpu=1.5
new load.hv_f0_lv0_f0_c5 phases=1 bus1=hv_f0_lv0_f0_c5.3 conn=w kv=0.23 kw=1 kvar=1 model=1 status=variable daily=Load_shape_251 vminpu=0.5 vmaxpu=1.5
new load.hv_f0_lv0_f0_c6 phases=1 bus1=hv_f0_lv0_f0_c6.1 conn=w kv=0.23 kw=1 kvar=1 model=1 status=variable daily=Load_shape_195 vminpu=0.5 vmaxpu=1.5
new load.hv_f0_lv0_f0_c7 phases=1 bus1=hv_f0_lv0_f0_c7.2 conn=w kv=0.23 kw=1 kvar=1 model=1 status=variable daily=Load_shape_9 vminpu=0.5 vmaxpu=1.5
new load.hv_f0_lv0_f0_c8 phases=1 bus1=hv_f0_lv0_f0_c8.3 conn=w kv=0.23 kw=1 kvar=1 model=1 status=variable daily=Load_shape_211 vminpu=0.5 vmaxpu=1.5
new load.hv_f0_lv0_f0_c9 phases=1 bus1=hv_f0_lv0_f0_c9.1 conn=w kv=0.23 kw=1 kvar=1 model=1 status=variable daily=Load_shape_277 vminpu=0.5 vmaxpu=1.5
new load.hv_f0_lv0_f0_c10 phases=1 bus1=hv_f0_lv0_f0_c10.2 conn=w kv=0.23 kw=1 kvar=1 model=1 status=variable daily=Load_shape_242 vminpu=0.5 vmaxpu=1.5
new load.hv_f0_lv0_f0_c11 phases=1 bus1=hv_f0_lv0_f0_c11.3 conn=w kv=0.23 kw=1 kvar=1 model=1 status=variable daily=Load_shape_292 vminpu=0.5 vmaxpu=1.5
new load.hv_f0_lv1_f0_c0 phases=1 bus1=hv_f0_lv1_f0_c0.1 conn=w kv=0.23 kw=1 kvar=1 model=1 status=variable daily=Load_shape_87 vminpu=0.5 vmaxpu=1.5
new load.hv_f0_lv1_f0_c1 phases=1 bus1=hv_f0_lv1_f0_c1.2 conn=w kv=0.23 kw=1 kvar=1 model=1 status=variable daily=Load_shape_70 vminpu=0.5 vmaxpu=1.5
new load.hv_f0_lv1_f0_c2 phases=1 bus1=hv_f0_lv1_f0_c2.3 conn=w kv=0.23 kw=1 kvar=1 model=1 status=variable daily=Load_shape_88 vminpu=0.5 vmaxpu=1.5
new load.hv_f0_lv2_f0_c0 phases=1 bus1=hv_f0_lv2_f0_c0.1 conn=w kv=0.23 kw=1 kvar=1 model=1 status=variable daily=Load_shape_314 vminpu=0.5 vmaxpu=1.5
new load.hv_f0_lv2_f0_c1 phases=1 bus1=hv_f0_lv2_f0_c1.2 conn=w kv=0.23 kw=1 kvar=1 model=1 status=variable daily=Load_shape_193 vminpu=0.5 vmaxpu=1.5
new load.hv_f0_lv2_f0_c2 phases=1 bus1=hv_f0_lv2_f0_c2.3 conn=w kv=0.23 kw=1 kvar=1 model=1 status=variable daily=Load_shape_39 vminpu=0.5 vmaxpu=1.5
new load.hv_f0_lv2_f0_c3 phases=1 bus1=hv_f0_lv2_f0_c3.1 conn=w kv=0.23 kw=1 kvar=1 model=1 status=variable daily=Load_shape_87 vminpu=0.5 vmaxpu=1.5
new load.hv_f0_lv2_f0_c4 phases=1 bus1=hv_f0_lv2_f0_c4.2 conn=w kv=0.23 kw=1 kvar=1 model=1 status=variable daily=Load_shape_174 vminpu=0.5 vmaxpu=1.5
new load.hv_f0_lv2_f0_c5 phases=1 bus1=hv_f0_lv2_f0_c5.3 conn=w kv=0.23 kw=1 kvar=1 model=1 status=variable daily=Load_shape_88 vminpu=0.5 vmaxpu=1.5
new load.hv_f0_lv2_f0_c6 phases=1 bus1=hv_f0_lv2_f0_c6.1 conn=w kv=0.23 kw=1 kvar=1 model=1 status=variable daily=Load_shape_337 vminpu=0.5 vmaxpu=1.5
new load.hv_f0_lv2_f0_c7 phases=1 bus1=hv_f0_lv2_f0_c7.2 conn=w kv=0.23 kw=1 kvar=1 model=1 status=variable daily=Load_shape_165 vminpu=0.5 vmaxpu=1.5
new load.hv_f0_lv2_f0_c8 phases=1 bus1=hv_f0_lv2_f0_c8.3 conn=w kv=0.23 kw=1 kvar=1 model=1 status=variable daily=Load_shape_25 vminpu=0.5 vmaxpu=1.5
new load.hv_f0_lv3_f0_c0 phases=1 bus1=hv_f0_lv3_f0_c0.1 conn=w kv=0.23 kw=1 kvar=1 model=1 status=variable daily=Load_shape_333 vminpu=0.5 vmaxpu=1.5
new load.hv_f0_lv3_f0_c1 phases=1 bus1=hv_f0_lv3_f0_c1.2 conn=w kv=0.23 kw=1 kvar=1 model=1 status=variable daily=Load_shape_72 vminpu=0.5 vmaxpu=1.5
new load.hv_f0_lv3_f0_c2 phases=1 bus1=hv_f0_lv3_f0_c2.3 conn=w kv=0.23 kw=1 kvar=1 model=1 status=variable daily=Load_shape_265 vminpu=0.5 vmaxpu=1.5
new load.hv_f0_lv3_f0_c3 phases=1 bus1=hv_f0_lv3_f0_c3.1 conn=w kv=0.23 kw=1 kvar=1 model=1 status=variable daily=Load_shape_115 vminpu=0.5 vmaxpu=1.5
new load.hv_f0_lv3_f0_c4 phases=1 bus1=hv_f0_lv3_f0_c4.2 conn=w kv=0.23 kw=1 kvar=1 model=1 status=variable daily=Load_shape_243 vminpu=0.5 vmaxpu=1.5
new load.hv_f0_lv3_f0_c5 phases=1 bus1=hv_f0_lv3_f0_c5.3 conn=w kv=0.23 kw=1 kvar=1 model=1 status=variable daily=Load_shape_197 vminpu=0.5 vmaxpu=1.5
new load.hv_f0_lv3_f0_c6 phases=1 bus1=hv_f0_lv3_f0_c6.1 conn=w kv=0.23 kw=1 kvar=1 model=1 status=variable daily=Load_shape_335 vminpu=0.5 vmaxpu=1.5
new load.hv_f0_lv3_f0_c7 phases=1 bus1=hv_f0_lv3_f0_c7.2 conn=w kv=0.23 kw=1 kvar=1 model=1 status=variable daily=Load_shape_338 vminpu=0.5 vmaxpu=1.5
new load.hv_f0_lv3_f0_c8 phases=1 bus1=hv_f0_lv3_f0_c8.3 conn=w kv=0.23 kw=1 kvar=1 model=1 status=variable daily=Load_shape_99 vminpu=0.5 vmaxpu=1.5
new load.hv_f0_lv3_f0_c9 phases=1 bus1=hv_f0_lv3_f0_c9.1 conn=w kv=0.23 kw=1 kvar=1 model=1 status=variable daily=Load_shape_177 vminpu=0.5 vmaxpu=1.5
new load.hv_f0_lv3_f0_c10 phases=1 bus1=hv_f0_lv3_f0_c10.2 conn=w kv=0.23 kw=1 kvar=1 model=1 status=variable daily=Load_shape_243 vminpu=0.5 vmaxpu=1.5
new load.hv_f0_lv3_f0_c11 phases=1 bus1=hv_f0_lv3_f0_c11.3 conn=w kv=0.23 kw=1 kvar=1 model=1 status=variable daily=Load_shape_285 vminpu=0.5 vmaxpu=1.5
new load.hv_f0_lv3_f0_c12 phases=1 bus1=hv_f0_lv3_f0_c12.1 conn=w kv=0.23 kw=1 kvar=1 model=1 status=variable daily=Load_shape_147 vminpu=0.5 vmaxpu=1.5
new load.hv_f0_lv3_f0_c13 phases=1 bus1=hv_f0_lv3_f0_c13.2 conn=w kv=0.23 kw=1 kvar=1 model=1 status=variable daily=Load_shape_147 vminpu=0.5 vmaxpu=1.5
new load.hv_f0_lv3_f0_c14 phases=1 bus1=hv_f0_lv3_f0_c14.3 conn=w kv=0.23 kw=1 kvar=1 model=1 status=variable daily=Load_shape_288 vminpu=0.5 vmaxpu=1.5
new load.hv_f0_lv3_f0_c15 phases=1 bus1=hv_f0_lv3_f0_c15.1 conn=w kv=0.23 kw=1 kvar=1 model=1 status=variable daily=Load_shape_265 vminpu=0.5 vmaxpu=1.5
new load.hv_f0_lv3_f0_c16 phases=1 bus1=hv_f0_lv3_f0_c16.2 conn=w kv=0.23 kw=1 kvar=1 model=1 status=variable daily=Load_shape_185 vminpu=0.5 vmaxpu=1.5
new load.hv_f0_lv3_f0_c17 phases=1 bus1=hv_f0_lv3_f0_c17.3 conn=w kv=0.23 kw=1 kvar=1 model=1 status=variable daily=Load_shape_127 vminpu=0.5 vmaxpu=1.5
new load.hv_f0_lv3_f0_c18 phases=1 bus1=hv_f0_lv3_f0_c18.1 conn=w kv=0.23 kw=1 kvar=1 model=1 status=variable daily=Load_shape_32 vminpu=0.5 vmaxpu=1.5
new load.hv_f0_lv3_f0_c19 phases=1 bus1=hv_f0_lv3_f0_c19.2 conn=w kv=0.23 kw=1 kvar=1 model=1 status=variable daily=Load_shape_31 vminpu=0.5 vmaxpu=1.5
new load.hv_f0_lv3_f0_c20 phases=1 bus1=hv_f0_lv3_f0_c20.3 conn=w kv=0.23 kw=1 kvar=1 model=1 status=variable daily=Load_shape_202 vminpu=0.5 vmaxpu=1.5
new load.hv_f0_lv3_f0_c21 phases=1 bus1=hv_f0_lv3_f0_c21.1 conn=w kv=0.23 kw=1 kvar=1 model=1 status=variable daily=Load_shape_244 vminpu=0.5 vmaxpu=1.5
new load.hv_f0_lv3_f0_c22 phases=1 bus1=hv_f0_lv3_f0_c22.2 conn=w kv=0.23 kw=1 kvar=1 model=1 status=variable daily=Load_shape_151 vminpu=0.5 vmaxpu=1.5
new load.hv_f0_lv3_f0_c23 phases=1 bus1=hv_f0_lv3_f0_c23.3 conn=w kv=0.23 kw=1 kvar=1 model=1 status=variable daily=Load_shape_163 vminpu=0.5 vmaxpu=1.5
new load.hv_f0_lv3_f0_c24 phases=1 bus1=hv_f0_lv3_f0_c24.1 conn=w kv=0.23 kw=1 kvar=1 model=1 status=variable daily=Load_shape_183 vminpu=0.5 vmaxpu=1.5
new load.hv_f0_lv3_f0_c25 phases=1 bus1=hv_f0_lv3_f0_c25.2 conn=w kv=0.23 kw=1 kvar=1 model=1 status=variable daily=Load_shape_28 vminpu=0.5 vmaxpu=1.5
new load.hv_f0_lv3_f0_c26 phases=1 bus1=hv_f0_lv3_f0_c26.3 conn=w kv=0.23 kw=1 kvar=1 model=1 status=variable daily=Load_shape_290 vminpu=0.5 vmaxpu=1.5
new load.hv_f0_lv3_f0_c27 phases=1 bus1=hv_f0_lv3_f0_c27.1 conn=w kv=0.23 kw=1 kvar=1 model=1 status=variable daily=Load_shape_128 vminpu=0.5 vmaxpu=1.5
new load.hv_f0_lv3_f0_c28 phases=1 bus1=hv_f0_lv3_f0_c28.2 conn=w kv=0.23 kw=1 kvar=1 model=1 status=variable daily=Load_shape_128 vminpu=0.5 vmaxpu=1.5
new load.hv_f0_lv3_f0_c29 phases=1 bus1=hv_f0_lv3_f0_c29.3 conn=w kv=0.23 kw=1 kvar=1 model=1 status=variable daily=Load_shape_53 vminpu=0.5 vmaxpu=1.5
new load.hv_f0_lv3_f0_c30 phases=1 bus1=hv_f0_lv3_f0_c30.1 conn=w kv=0.23 kw=1 kvar=1 model=1 status=variable daily=Load_shape_38 vminpu=0.5 vmaxpu=1.5
new load.hv_f0_lv3_f0_c31 phases=1 bus1=hv_f0_lv3_f0_c31.2 conn=w kv=0.23 kw=1 kvar=1 model=1 status=variable daily=Load_shape_244 vminpu=0.5 vmaxpu=1.5
new load.hv_f0_lv3_f0_c32 phases=1 bus1=hv_f0_lv3_f0_c32.3 conn=w kv=0.23 kw=1 kvar=1 model=1 status=variable daily=Load_shape_273 vminpu=0.5 vmaxpu=1.5
new load.hv_f0_lv3_f0_c33 phases=1 bus1=hv_f0_lv3_f0_c33.1 conn=w kv=0.23 kw=1 kvar=1 model=1 status=variable daily=Load_shape_335 vminpu=0.5 vmaxpu=1.5
new load.hv_f0_lv3_f0_c34 phases=1 bus1=hv_f0_lv3_f0_c34.2 conn=w kv=0.23 kw=1 kvar=1 model=1 status=variable daily=Load_shape_105 vminpu=0.5 vmaxpu=1.5
new load.hv_f0_lv3_f0_c35 phases=1 bus1=hv_f0_lv3_f0_c35.3 conn=w kv=0.23 kw=1 kvar=1 model=1 status=variable daily=Load_shape_42 vminpu=0.5 vmaxpu=1.5
new load.hv_f0_lv3_f0_c36 phases=1 bus1=hv_f0_lv3_f0_c36.1 conn=w kv=0.23 kw=1 kvar=1 model=1 status=variable daily=Load_shape_31 vminpu=0.5 vmaxpu=1.5
new load.hv_f0_lv3_f0_c37 phases=1 bus1=hv_f0_lv3_f0_c37.2 conn=w kv=0.23 kw=1 kvar=1 model=1 status=variable daily=Load_shape_257 vminpu=0.5 vmaxpu=1.5
new load.hv_f0_lv3_f0_c38 phases=1 bus1=hv_f0_lv3_f0_c38.3 conn=w kv=0.23 kw=1 kvar=1 model=1 status=variable daily=Load_shape_321 vminpu=0.5 vmaxpu=1.5
new load.hv_f0_lv3_f0_c39 phases=1 bus1=hv_f0_lv3_f0_c39.1 conn=w kv=0.23 kw=1 kvar=1 model=1 status=variable daily=Load_shape_57 vminpu=0.5 vmaxpu=1.5
new load.hv_f0_lv3_f1_c0 phases=1 bus1=hv_f0_lv3_f1_c0.1 conn=w kv=0.23 kw=1 kvar=1 model=1 status=variable daily=Load_shape_291 vminpu=0.5 vmaxpu=1.5
new load.hv_f0_lv3_f1_c1 phases=1 bus1=hv_f0_lv3_f1_c1.2 conn=w kv=0.23 kw=1 kvar=1 model=1 status=variable daily=Load_shape_119 vminpu=0.5 vmaxpu=1.5
new load.hv_f0_lv3_f1_c2 phases=1 bus1=hv_f0_lv3_f1_c2.3 conn=w kv=0.23 kw=1 kvar=1 model=1 status=variable daily=Load_shape_267 vminpu=0.5 vmaxpu=1.5
new load.hv_f0_lv3_f1_c3 phases=1 bus1=hv_f0_lv3_f1_c3.1 conn=w kv=0.23 kw=1 kvar=1 model=1 status=variable daily=Load_shape_82 vminpu=0.5 vmaxpu=1.5
new load.hv_f0_lv3_f1_c4 phases=1 bus1=hv_f0_lv3_f1_c4.2 conn=w kv=0.23 kw=1 kvar=1 model=1 status=variable daily=Load_shape_91 vminpu=0.5 vmaxpu=1.5
new load.hv_f0_lv3_f1_c5 phases=1 bus1=hv_f0_lv3_f1_c5.3 conn=w kv=0.23 kw=1 kvar=1 model=1 status=variable daily=Load_shape_99 vminpu=0.5 vmaxpu=1.5
new load.hv_f0_lv3_f1_c6 phases=1 bus1=hv_f0_lv3_f1_c6.1 conn=w kv=0.23 kw=1 kvar=1 model=1 status=variable daily=Load_shape_53 vminpu=0.5 vmaxpu=1.5
new load.hv_f0_lv3_f1_c7 phases=1 bus1=hv_f0_lv3_f1_c7.2 conn=w kv=0.23 kw=1 kvar=1 model=1 status=variable daily=Load_shape_121 vminpu=0.5 vmaxpu=1.5
new load.hv_f0_lv3_f1_c8 phases=1 bus1=hv_f0_lv3_f1_c8.3 conn=w kv=0.23 kw=1 kvar=1 model=1 status=variable daily=Load_shape_84 vminpu=0.5 vmaxpu=1.5
new load.hv_f0_lv3_f1_c9 phases=1 bus1=hv_f0_lv3_f1_c9.1 conn=w kv=0.23 kw=1 kvar=1 model=1 status=variable daily=Load_shape_203 vminpu=0.5 vmaxpu=1.5
new load.hv_f0_lv3_f1_c10 phases=1 bus1=hv_f0_lv3_f1_c10.2 conn=w kv=0.23 kw=1 kvar=1 model=1 status=variable daily=Load_shape_324 vminpu=0.5 vmaxpu=1.5
new load.hv_f0_lv3_f1_c11 phases=1 bus1=hv_f0_lv3_f1_c11.3 conn=w kv=0.23 kw=1 kvar=1 model=1 status=variable daily=Load_shape_262 vminpu=0.5 vmaxpu=1.5
new load.hv_f0_lv3_f1_c12 phases=1 bus1=hv_f0_lv3_f1_c12.1 conn=w kv=0.23 kw=1 kvar=1 model=1 status=variable daily=Load_shape_47 vminpu=0.5 vmaxpu=1.5
new load.hv_f0_lv3_f1_c13 phases=1 bus1=hv_f0_lv3_f1_c13.2 conn=w kv=0.23 kw=1 kvar=1 model=1 status=variable daily=Load_shape_127 vminpu=0.5 vmaxpu=1.5
new load.hv_f0_lv3_f1_c14 phases=1 bus1=hv_f0_lv3_f1_c14.3 conn=w kv=0.23 kw=1 kvar=1 model=1 status=variable daily=Load_shape_131 vminpu=0.5 vmaxpu=1.5
new load.hv_f0_lv3_f1_c15 phases=1 bus1=hv_f0_lv3_f1_c15.1 conn=w kv=0.23 kw=1 kvar=1 model=1 status=variable daily=Load_shape_180 vminpu=0.5 vmaxpu=1.5
new load.hv_f0_lv3_f1_c16 phases=1 bus1=hv_f0_lv3_f1_c16.2 conn=w kv=0.23 kw=1 kvar=1 model=1 status=variable daily=Load_shape_334 vminpu=0.5 vmaxpu=1.5
new load.hv_f0_lv3_f1_c17 phases=1 bus1=hv_f0_lv3_f1_c17.3 conn=w kv=0.23 kw=1 kvar=1 model=1 status=variable daily=Load_shape_143 vminpu=0.5 vmaxpu=1.5
new load.hv_f0_lv3_f1_c18 phases=1 bus1=hv_f0_lv3_f1_c18.1 conn=w kv=0.23 kw=1 kvar=1 model=1 status=variable daily=Load_shape_148 vminpu=0.5 vmaxpu=1.5
new load.hv_f0_lv3_f1_c19 phases=1 bus1=hv_f0_lv3_f1_c19.2 conn=w kv=0.23 kw=1 kvar=1 model=1 status=variable daily=Load_shape_227 vminpu=0.5 vmaxpu=1.5
new load.hv_f0_lv3_f1_c20 phases=1 bus1=hv_f0_lv3_f1_c20.3 conn=w kv=0.23 kw=1 kvar=1 model=1 status=variable daily=Load_shape_279 vminpu=0.5 vmaxpu=1.5
new load.hv_f0_lv3_f1_c21 phases=1 bus1=hv_f0_lv3_f1_c21.1 conn=w kv=0.23 kw=1 kvar=1 model=1 status=variable daily=Load_shape_207 vminpu=0.5 vmaxpu=1.5
new load.hv_f0_lv3_f1_c22 phases=1 bus1=hv_f0_lv3_f1_c22.2 conn=w kv=0.23 kw=1 kvar=1 model=1 status=variable daily=Load_shape_341 vminpu=0.5 vmaxpu=1.5
new load.hv_f0_lv3_f1_c23 phases=1 bus1=hv_f0_lv3_f1_c23.3 conn=w kv=0.23 kw=1 kvar=1 model=1 status=variable daily=Load_shape_48 vminpu=0.5 vmaxpu=1.5
new load.hv_f0_lv3_f1_c24 phases=1 bus1=hv_f0_lv3_f1_c24.1 conn=w kv=0.23 kw=1 kvar=1 model=1 status=variable daily=Load_shape_305 vminpu=0.5 vmaxpu=1.5
new load.hv_f0_lv3_f1_c25 phases=1 bus1=hv_f0_lv3_f1_c25.2 conn=w kv=0.23 kw=1 kvar=1 model=1 status=variable daily=Load_shape_69 vminpu=0.5 vmaxpu=1.5
new load.hv_f0_lv3_f1_c26 phases=1 bus1=hv_f0_lv3_f1_c26.3 conn=w kv=0.23 kw=1 kvar=1 model=1 status=variable daily=Load_shape_169 vminpu=0.5 vmaxpu=1.5
new load.hv_f0_lv3_f1_c27 phases=1 bus1=hv_f0_lv3_f1_c27.1 conn=w kv=0.23 kw=1 kvar=1 model=1 status=variable daily=Load_shape_163 vminpu=0.5 vmaxpu=1.5
new load.hv_f0_lv3_f1_c28 phases=1 bus1=hv_f0_lv3_f1_c28.2 conn=w kv=0.23 kw=1 kvar=1 model=1 status=variable daily=Load_shape_95 vminpu=0.5 vmaxpu=1.5
new load.hv_f0_lv3_f1_c29 phases=1 bus1=hv_f0_lv3_f1_c29.3 conn=w kv=0.23 kw=1 kvar=1 model=1 status=variable daily=Load_shape_197 vminpu=0.5 vmaxpu=1.5
new load.hv_f0_lv3_f1_c30 phases=1 bus1=hv_f0_lv3_f1_c30.1 conn=w kv=0.23 kw=1 kvar=1 model=1 status=variable daily=Load_shape_94 vminpu=0.5 vmaxpu=1.5
new load.hv_f0_lv3_f1_c31 phases=1 bus1=hv_f0_lv3_f1_c31.2 conn=w kv=0.23 kw=1 kvar=1 model=1 status=variable daily=Load_shape_256 vminpu=0.5 vmaxpu=1.5
new load.hv_f0_lv3_f1_c32 phases=1 bus1=hv_f0_lv3_f1_c32.3 conn=w kv=0.23 kw=1 kvar=1 model=1 status=variable daily=Load_shape_178 vminpu=0.5 vmaxpu=1.5
new load.hv_f0_lv3_f1_c33 phases=1 bus1=hv_f0_lv3_f1_c33.1 conn=w kv=0.23 kw=1 kvar=1 model=1 status=variable daily=Load_shape_292 vminpu=0.5 vmaxpu=1.5
new load.hv_f0_lv3_f1_c34 phases=1 bus1=hv_f0_lv3_f1_c34.2 conn=w kv=0.23 kw=1 kvar=1 model=1 status=variable daily=Load_shape_304 vminpu=0.5 vmaxpu=1.5
new load.hv_f0_lv3_f1_c35 phases=1 bus1=hv_f0_lv3_f1_c35.3 conn=w kv=0.23 kw=1 kvar=1 model=1 status=variable daily=Load_shape_98 vminpu=0.5 vmaxpu=1.5
new load.hv_f0_lv3_f1_c36 phases=1 bus1=hv_f0_lv3_f1_c36.1 conn=w kv=0.23 kw=1 kvar=1 model=1 status=variable daily=Load_shape_42 vminpu=0.5 vmaxpu=1.5
new load.hv_f0_lv3_f1_c37 phases=1 bus1=hv_f0_lv3_f1_c37.2 conn=w kv=0.23 kw=1 kvar=1 model=1 status=variable daily=Load_shape_201 vminpu=0.5 vmaxpu=1.5
new load.hv_f0_lv3_f1_c38 phases=1 bus1=hv_f0_lv3_f1_c38.3 conn=w kv=0.23 kw=1 kvar=1 model=1 status=variable daily=Load_shape_0 vminpu=0.5 vmaxpu=1.5
new load.hv_f0_lv3_f1_c39 phases=1 bus1=hv_f0_lv3_f1_c39.1 conn=w kv=0.23 kw=1 kvar=1 model=1 status=variable daily=Load_shape_43 vminpu=0.5 vmaxpu=1.5
new load.hv_f0_lv3_f2_c0 phases=1 bus1=hv_f0_lv3_f2_c0.1 conn=w kv=0.23 kw=1 kvar=1 model=1 status=variable daily=Load_shape_23 vminpu=0.5 vmaxpu=1.5
new load.hv_f0_lv3_f2_c1 phases=1 bus1=hv_f0_lv3_f2_c1.2 conn=w kv=0.23 kw=1 kvar=1 model=1 status=variable daily=Load_shape_187 vminpu=0.5 vmaxpu=1.5
new load.hv_f0_lv3_f2_c2 phases=1 bus1=hv_f0_lv3_f2_c2.3 conn=w kv=0.23 kw=1 kvar=1 model=1 status=variable daily=Load_shape_130 vminpu=0.5 vmaxpu=1.5
new load.hv_f0_lv3_f2_c3 phases=1 bus1=hv_f0_lv3_f2_c3.1 conn=w kv=0.23 kw=1 kvar=1 model=1 status=variable daily=Load_shape_98 vminpu=0.5 vmaxpu=1.5
new load.hv_f0_lv3_f2_c4 phases=1 bus1=hv_f0_lv3_f2_c4.2 conn=w kv=0.23 kw=1 kvar=1 model=1 status=variable daily=Load_shape_62 vminpu=0.5 vmaxpu=1.5
new load.hv_f0_lv3_f2_c5 phases=1 bus1=hv_f0_lv3_f2_c5.3 conn=w kv=0.23 kw=1 kvar=1 model=1 status=variable daily=Load_shape_222 vminpu=0.5 vmaxpu=1.5
new load.hv_f0_lv3_f2_c6 phases=1 bus1=hv_f0_lv3_f2_c6.1 conn=w kv=0.23 kw=1 kvar=1 model=1 status=variable daily=Load_shape_123 vminpu=0.5 vmaxpu=1.5
new load.hv_f0_lv3_f2_c7 phases=1 bus1=hv_f0_lv3_f2_c7.2 conn=w kv=0.23 kw=1 kvar=1 model=1 status=variable daily=Load_shape_82 vminpu=0.5 vmaxpu=1.5
new load.hv_f0_lv3_f2_c8 phases=1 bus1=hv_f0_lv3_f2_c8.3 conn=w kv=0.23 kw=1 kvar=1 model=1 status=variable daily=Load_shape_227 vminpu=0.5 vmaxpu=1.5
new load.hv_f0_lv3_f2_c9 phases=1 bus1=hv_f0_lv3_f2_c9.1 conn=w kv=0.23 kw=1 kvar=1 model=1 status=variable daily=Load_shape_148 vminpu=0.5 vmaxpu=1.5
new load.hv_f0_lv3_f2_c10 phases=1 bus1=hv_f0_lv3_f2_c10.2 conn=w kv=0.23 kw=1 kvar=1 model=1 status=variable daily=Load_shape_209 vminpu=0.5 vmaxpu=1.5
new load.hv_f0_lv3_f2_c11 phases=1 bus1=hv_f0_lv3_f2_c11.3 conn=w kv=0.23 kw=1 kvar=1 model=1 status=variable daily=Load_shape_50 vminpu=0.5 vmaxpu=1.5
new load.hv_f0_lv3_f2_c12 phases=1 bus1=hv_f0_lv3_f2_c12.1 conn=w kv=0.23 kw=1 kvar=1 model=1 status=variable daily=Load_shape_270 vminpu=0.5 vmaxpu=1.5
new load.hv_f0_lv3_f2_c13 phases=1 bus1=hv_f0_lv3_f2_c13.2 conn=w kv=0.23 kw=1 kvar=1 model=1 status=variable daily=Load_shape_41 vminpu=0.5 vmaxpu=1.5
new load.hv_f0_lv3_f2_c14 phases=1 bus1=hv_f0_lv3_f2_c14.3 conn=w kv=0.23 kw=1 kvar=1 model=1 status=variable daily=Load_shape_58 vminpu=0.5 vmaxpu=1.5
new load.hv_f0_lv3_f2_c15 phases=1 bus1=hv_f0_lv3_f2_c15.1 conn=w kv=0.23 kw=1 kvar=1 model=1 status=variable daily=Load_shape_193 vminpu=0.5 vmaxpu=1.5
new load.hv_f0_lv3_f2_c16 phases=1 bus1=hv_f0_lv3_f2_c16.2 conn=w kv=0.23 kw=1 kvar=1 model=1 status=variable daily=Load_shape_36 vminpu=0.5 vmaxpu=1.5
new load.hv_f0_lv3_f2_c17 phases=1 bus1=hv_f0_lv3_f2_c17.3 conn=w kv=0.23 kw=1 kvar=1 model=1 status=variable daily=Load_shape_266 vminpu=0.5 vmaxpu=1.5
new load.hv_f0_lv3_f2_c18 phases=1 bus1=hv_f0_lv3_f2_c18.1 conn=w kv=0.23 kw=1 kvar=1 model=1 status=variable daily=Load_shape_86 vminpu=0.5 vmaxpu=1.5
new load.hv_f0_lv3_f2_c19 phases=1 bus1=hv_f0_lv3_f2_c19.2 conn=w kv=0.23 kw=1 kvar=1 model=1 status=variable daily=Load_shape_43 vminpu=0.5 vmaxpu=1.5
new load.hv_f0_lv3_f2_c20 phases=1 bus1=hv_f0_lv3_f2_c20.3 conn=w kv=0.23 kw=1 kvar=1 model=1 status=variable daily=Load_shape_11 vminpu=0.5 vmaxpu=1.5
new load.hv_f0_lv3_f2_c21 phases=1 bus1=hv_f0_lv3_f2_c21.1 conn=w kv=0.23 kw=1 kvar=1 model=1 status=variable daily=Load_shape_258 vminpu=0.5 vmaxpu=1.5
new load.hv_f0_lv3_f2_c22 phases=1 bus1=hv_f0_lv3_f2_c22.2 conn=w kv=0.23 kw=1 kvar=1 model=1 status=variable daily=Load_shape_307 vminpu=0.5 vmaxpu=1.5
new load.hv_f0_lv3_f2_c23 phases=1 bus1=hv_f0_lv3_f2_c23.3 conn=w kv=0.23 kw=1 kvar=1 model=1 status=variable daily=Load_shape_80 vminpu=0.5 vmaxpu=1.5
new load.hv_f0_lv3_f2_c24 phases=1 bus1=hv_f0_lv3_f2_c24.1 conn=w kv=0.23 kw=1 kvar=1 model=1 status=variable daily=Load_shape_32 vminpu=0.5 vmaxpu=1.5
new load.hv_f0_lv3_f2_c25 phases=1 bus1=hv_f0_lv3_f2_c25.2 conn=w kv=0.23 kw=1 kvar=1 model=1 status=variable daily=Load_shape_182 vminpu=0.5 vmaxpu=1.5
new load.hv_f0_lv3_f2_c26 phases=1 bus1=hv_f0_lv3_f2_c26.3 conn=w kv=0.23 kw=1 kvar=1 model=1 status=variable daily=Load_shape_128 vminpu=0.5 vmaxpu=1.5
new load.hv_f0_lv3_f2_c27 phases=1 bus1=hv_f0_lv3_f2_c27.1 conn=w kv=0.23 kw=1 kvar=1 model=1 status=variable daily=Load_shape_294 vminpu=0.5 vmaxpu=1.5
new load.hv_f0_lv3_f2_c28 phases=1 bus1=hv_f0_lv3_f2_c28.2 conn=w kv=0.23 kw=1 kvar=1 model=1 status=variable daily=Load_shape_275 vminpu=0.5 vmaxpu=1.5
new load.hv_f0_lv3_f2_c29 phases=1 bus1=hv_f0_lv3_f2_c29.3 conn=w kv=0.23 kw=1 kvar=1 model=1 status=variable daily=Load_shape_174 vminpu=0.5 vmaxpu=1.5
new load.hv_f0_lv3_f2_c30 phases=1 bus1=hv_f0_lv3_f2_c30.1 conn=w kv=0.23 kw=1 kvar=1 model=1 status=variable daily=Load_shape_42 vminpu=0.5 vmaxpu=1.5
new load.hv_f0_lv3_f2_c31 phases=1 bus1=hv_f0_lv3_f2_c31.2 conn=w kv=0.23 kw=1 kvar=1 model=1 status=variable daily=Load_shape_184 vminpu=0.5 vmaxpu=1.5
new load.hv_f0_lv3_f2_c32 phases=1 bus1=hv_f0_lv3_f2_c32.3 conn=w kv=0.23 kw=1 kvar=1 model=1 status=variable daily=Load_shape_77 vminpu=0.5 vmaxpu=1.5
new load.hv_f0_lv3_f2_c33 phases=1 bus1=hv_f0_lv3_f2_c33.1 conn=w kv=0.23 kw=1 kvar=1 model=1 status=variable daily=Load_shape_286 vminpu=0.5 vmaxpu=1.5
new load.hv_f0_lv3_f2_c34 phases=1 bus1=hv_f0_lv3_f2_c34.2 conn=w kv=0.23 kw=1 kvar=1 model=1 status=variable daily=Load_shape_280 vminpu=0.5 vmaxpu=1.5
new load.hv_f0_lv3_f2_c35 phases=1 bus1=hv_f0_lv3_f2_c35.3 conn=w kv=0.23 kw=1 kvar=1 model=1 status=variable daily=Load_shape_125 vminpu=0.5 vmaxpu=1.5
new load.hv_f0_lv3_f2_c36 phases=1 bus1=hv_f0_lv3_f2_c36.1 conn=w kv=0.23 kw=1 kvar=1 model=1 status=variable daily=Load_shape_258 vminpu=0.5 vmaxpu=1.5
new load.hv_f0_lv3_f2_c37 phases=1 bus1=hv_f0_lv3_f2_c37.2 conn=w kv=0.23 kw=1 kvar=1 model=1 status=variable daily=Load_shape_3 vminpu=0.5 vmaxpu=1.5
new load.hv_f0_lv3_f2_c38 phases=1 bus1=hv_f0_lv3_f2_c38.3 conn=w kv=0.23 kw=1 kvar=1 model=1 status=variable daily=Load_shape_94 vminpu=0.5 vmaxpu=1.5
new load.hv_f0_lv3_f2_c39 phases=1 bus1=hv_f0_lv3_f2_c39.1 conn=w kv=0.23 kw=1 kvar=1 model=1 status=variable daily=Load_shape_226 vminpu=0.5 vmaxpu=1.5
new load.hv_f0_lv3_f3_c0 phases=1 bus1=hv_f0_lv3_f3_c0.1 conn=w kv=0.23 kw=1 kvar=1 model=1 status=variable daily=Load_shape_269 vminpu=0.5 vmaxpu=1.5
new load.hv_f0_lv3_f3_c1 phases=1 bus1=hv_f0_lv3_f3_c1.2 conn=w kv=0.23 kw=1 kvar=1 model=1 status=variable daily=Load_shape_296 vminpu=0.5 vmaxpu=1.5
new load.hv_f0_lv3_f3_c2 phases=1 bus1=hv_f0_lv3_f3_c2.3 conn=w kv=0.23 kw=1 kvar=1 model=1 status=variable daily=Load_shape_328 vminpu=0.5 vmaxpu=1.5
new load.hv_f0_lv3_f3_c3 phases=1 bus1=hv_f0_lv3_f3_c3.1 conn=w kv=0.23 kw=1 kvar=1 model=1 status=variable daily=Load_shape_19 vminpu=0.5 vmaxpu=1.5
new load.hv_f0_lv3_f3_c4 phases=1 bus1=hv_f0_lv3_f3_c4.2 conn=w kv=0.23 kw=1 kvar=1 model=1 status=variable daily=Load_shape_95 vminpu=0.5 vmaxpu=1.5
new load.hv_f0_lv4_f0_c0 phases=1 bus1=hv_f0_lv4_f0_c0.1 conn=w kv=0.23 kw=1 kvar=1 model=1 status=variable daily=Load_shape_328 vminpu=0.5 vmaxpu=1.5
new load.hv_f0_lv5_f0_c0 phases=3 bus1=hv_f0_lv5_f0_c0.1.2.3 pf=0.95 conn=w kv=0.4 kw=1 model=1 status=variable daily=Load_shape_Com_5 vminpu=0.5 vmaxpu=1.5
new load.hv_f0_lv6_f0_c0 phases=3 bus1=hv_f0_lv6_f0_c0.1.2.3 pf=0.95 conn=w kv=0.4 kw=1 model=1 status=variable daily=Load_shape_Com_6 vminpu=0.5 vmaxpu=1.5
new load.hv_f0_lv7_f0_c0 phases=1 bus1=hv_f0_lv7_f0_c0.1 conn=w kv=0.23 kw=1 kvar=1 model=1 status=variable daily=Load_shape_323 vminpu=0.5 vmaxpu=1.5
new load.hv_f0_lv7_f0_c1 phases=1 bus1=hv_f0_lv7_f0_c1.2 conn=w kv=0.23 kw=1 kvar=1 model=1 status=variable daily=Load_shape_317 vminpu=0.5 vmaxpu=1.5
new load.hv_f0_lv7_f0_c2 phases=1 bus1=hv_f0_lv7_f0_c2.3 conn=w kv=0.23 kw=1 kvar=1 model=1 status=variable daily=Load_shape_270 vminpu=0.5 vmaxpu=1.5
new load.hv_f0_lv7_f0_c3 phases=1 bus1=hv_f0_lv7_f0_c3.1 conn=w kv=0.23 kw=1 kvar=1 model=1 status=variable daily=Load_shape_260 vminpu=0.5 vmaxpu=1.5
new load.hv_f0_lv7_f0_c4 phases=1 bus1=hv_f0_lv7_f0_c4.2 conn=w kv=0.23 kw=1 kvar=1 model=1 status=variable daily=Load_shape_237 vminpu=0.5 vmaxpu=1.5
new load.hv_f0_lv7_f0_c5 phases=1 bus1=hv_f0_lv7_f0_c5.3 conn=w kv=0.23 kw=1 kvar=1 model=1 status=variable daily=Load_shape_139 vminpu=0.5 vmaxpu=1.5
new load.hv_f0_lv7_f0_c6 phases=1 bus1=hv_f0_lv7_f0_c6.1 conn=w kv=0.23 kw=1 kvar=1 model=1 status=variable daily=Load_shape_86 vminpu=0.5 vmaxpu=1.5
new load.hv_f0_lv7_f0_c7 phases=1 bus1=hv_f0_lv7_f0_c7.2 conn=w kv=0.23 kw=1 kvar=1 model=1 status=variable daily=Load_shape_109 vminpu=0.5 vmaxpu=1.5
new load.hv_f0_lv7_f0_c8 phases=1 bus1=hv_f0_lv7_f0_c8.3 conn=w kv=0.23 kw=1 kvar=1 model=1 status=variable daily=Load_shape_331 vminpu=0.5 vmaxpu=1.5
new load.hv_f0_lv7_f0_c9 phases=1 bus1=hv_f0_lv7_f0_c9.1 conn=w kv=0.23 kw=1 kvar=1 model=1 status=variable daily=Load_shape_184 vminpu=0.5 vmaxpu=1.5
new load.hv_f0_lv7_f0_c10 phases=1 bus1=hv_f0_lv7_f0_c10.2 conn=w kv=0.23 kw=1 kvar=1 model=1 status=variable daily=Load_shape_16 vminpu=0.5 vmaxpu=1.5
new load.hv_f0_lv7_f0_c11 phases=1 bus1=hv_f0_lv7_f0_c11.3 conn=w kv=0.23 kw=1 kvar=1 model=1 status=variable daily=Load_shape_152 vminpu=0.5 vmaxpu=1.5
new load.hv_f0_lv7_f0_c12 phases=1 bus1=hv_f0_lv7_f0_c12.1 conn=w kv=0.23 kw=1 kvar=1 model=1 status=variable daily=Load_shape_149 vminpu=0.5 vmaxpu=1.5
new load.hv_f0_lv7_f0_c13 phases=1 bus1=hv_f0_lv7_f0_c13.2 conn=w kv=0.23 kw=1 kvar=1 model=1 status=variable daily=Load_shape_110 vminpu=0.5 vmaxpu=1.5
new load.hv_f0_lv7_f0_c14 phases=1 bus1=hv_f0_lv7_f0_c14.3 conn=w kv=0.23 kw=1 kvar=1 model=1 status=variable daily=Load_shape_25 vminpu=0.5 vmaxpu=1.5
new load.hv_f0_lv7_f0_c15 phases=1 bus1=hv_f0_lv7_f0_c15.1 conn=w kv=0.23 kw=1 kvar=1 model=1 status=variable daily=Load_shape_117 vminpu=0.5 vmaxpu=1.5
new load.hv_f0_lv7_f0_c16 phases=1 bus1=hv_f0_lv7_f0_c16.2 conn=w kv=0.23 kw=1 kvar=1 model=1 status=variable daily=Load_shape_83 vminpu=0.5 vmaxpu=1.5
new load.hv_f0_lv7_f0_c17 phases=1 bus1=hv_f0_lv7_f0_c17.3 conn=w kv=0.23 kw=1 kvar=1 model=1 status=variable daily=Load_shape_161 vminpu=0.5 vmaxpu=1.5
new load.hv_f0_lv7_f0_c18 phases=1 bus1=hv_f0_lv7_f0_c18.1 conn=w kv=0.23 kw=1 kvar=1 model=1 status=variable daily=Load_shape_228 vminpu=0.5 vmaxpu=1.5
new load.hv_f0_lv7_f0_c19 phases=1 bus1=hv_f0_lv7_f0_c19.2 conn=w kv=0.23 kw=1 kvar=1 model=1 status=variable daily=Load_shape_251 vminpu=0.5 vmaxpu=1.5
new load.hv_f0_lv7_f0_c20 phases=1 bus1=hv_f0_lv7_f0_c20.3 conn=w kv=0.23 kw=1 kvar=1 model=1 status=variable daily=Load_shape_121 vminpu=0.5 vmaxpu=1.5
new load.hv_f0_lv7_f0_c21 phases=1 bus1=hv_f0_lv7_f0_c21.1 conn=w kv=0.23 kw=1 kvar=1 model=1 status=variable daily=Load_shape_326 vminpu=0.5 vmaxpu=1.5
new load.hv_f0_lv7_f0_c22 phases=1 bus1=hv_f0_lv7_f0_c22.2 conn=w kv=0.23 kw=1 kvar=1 model=1 status=variable daily=Load_shape_287 vminpu=0.5 vmaxpu=1.5
new load.hv_f0_lv7_f0_c23 phases=1 bus1=hv_f0_lv7_f0_c23.3 conn=w kv=0.23 kw=1 kvar=1 model=1 status=variable daily=Load_shape_13 vminpu=0.5 vmaxpu=1.5
new load.hv_f0_lv7_f0_c24 phases=1 bus1=hv_f0_lv7_f0_c24.1 conn=w kv=0.23 kw=1 kvar=1 model=1 status=variable daily=Load_shape_327 vminpu=0.5 vmaxpu=1.5
new load.hv_f0_lv7_f0_c25 phases=1 bus1=hv_f0_lv7_f0_c25.2 conn=w kv=0.23 kw=1 kvar=1 model=1 status=variable daily=Load_shape_184 vminpu=0.5 vmaxpu=1.5
new load.hv_f0_lv7_f0_c26 phases=1 bus1=hv_f0_lv7_f0_c26.3 conn=w kv=0.23 kw=1 kvar=1 model=1 status=variable daily=Load_shape_152 vminpu=0.5 vmaxpu=1.5
new load.hv_f0_lv7_f0_c27 phases=1 bus1=hv_f0_lv7_f0_c27.1 conn=w kv=0.23 kw=1 kvar=1 model=1 status=variable daily=Load_shape_79 vminpu=0.5 vmaxpu=1.5
new load.hv_f0_lv7_f0_c28 phases=1 bus1=hv_f0_lv7_f0_c28.2 conn=w kv=0.23 kw=1 kvar=1 model=1 status=variable daily=Load_shape_41 vminpu=0.5 vmaxpu=1.5
new load.hv_f0_lv7_f0_c29 phases=1 bus1=hv_f0_lv7_f0_c29.3 conn=w kv=0.23 kw=1 kvar=1 model=1 status=variable daily=Load_shape_274 vminpu=0.5 vmaxpu=1.5
new load.hv_f0_lv7_f0_c30 phases=1 bus1=hv_f0_lv7_f0_c30.1 conn=w kv=0.23 kw=1 kvar=1 model=1 status=variable daily=Load_shape_40 vminpu=0.5 vmaxpu=1.5
new load.hv_f0_lv7_f0_c31 phases=1 bus1=hv_f0_lv7_f0_c31.2 conn=w kv=0.23 kw=1 kvar=1 model=1 status=variable daily=Load_shape_207 vminpu=0.5 vmaxpu=1.5
new load.hv_f0_lv7_f0_c32 phases=1 bus1=hv_f0_lv7_f0_c32.3 conn=w kv=0.23 kw=1 kvar=1 model=1 status=variable daily=Load_shape_267 vminpu=0.5 vmaxpu=1.5
new load.hv_f0_lv7_f0_c33 phases=1 bus1=hv_f0_lv7_f0_c33.1 conn=w kv=0.23 kw=1 kvar=1 model=1 status=variable daily=Load_shape_166 vminpu=0.5 vmaxpu=1.5
new load.hv_f0_lv7_f0_c34 phases=1 bus1=hv_f0_lv7_f0_c34.2 conn=w kv=0.23 kw=1 kvar=1 model=1 status=variable daily=Load_shape_111 vminpu=0.5 vmaxpu=1.5
new load.hv_f0_lv7_f0_c35 phases=1 bus1=hv_f0_lv7_f0_c35.3 conn=w kv=0.23 kw=1 kvar=1 model=1 status=variable daily=Load_shape_129 vminpu=0.5 vmaxpu=1.5
new load.hv_f0_lv7_f0_c36 phases=1 bus1=hv_f0_lv7_f0_c36.1 conn=w kv=0.23 kw=1 kvar=1 model=1 status=variable daily=Load_shape_223 vminpu=0.5 vmaxpu=1.5
new load.hv_f0_lv7_f0_c37 phases=1 bus1=hv_f0_lv7_f0_c37.2 conn=w kv=0.23 kw=1 kvar=1 model=1 status=variable daily=Load_shape_300 vminpu=0.5 vmaxpu=1.5
new load.hv_f0_lv7_f0_c38 phases=1 bus1=hv_f0_lv7_f0_c38.3 conn=w kv=0.23 kw=1 kvar=1 model=1 status=variable daily=Load_shape_216 vminpu=0.5 vmaxpu=1.5
new load.hv_f0_lv7_f0_c39 phases=1 bus1=hv_f0_lv7_f0_c39.1 conn=w kv=0.23 kw=1 kvar=1 model=1 status=variable daily=Load_shape_24 vminpu=0.5 vmaxpu=1.5
new load.hv_f0_lv7_f1_c0 phases=1 bus1=hv_f0_lv7_f1_c0.1 conn=w kv=0.23 kw=1 kvar=1 model=1 status=variable daily=Load_shape_67 vminpu=0.5 vmaxpu=1.5
new load.hv_f0_lv7_f1_c1 phases=1 bus1=hv_f0_lv7_f1_c1.2 conn=w kv=0.23 kw=1 kvar=1 model=1 status=variable daily=Load_shape_259 vminpu=0.5 vmaxpu=1.5
new load.hv_f0_lv7_f1_c2 phases=1 bus1=hv_f0_lv7_f1_c2.3 conn=w kv=0.23 kw=1 kvar=1 model=1 status=variable daily=Load_shape_234 vminpu=0.5 vmaxpu=1.5
new load.hv_f0_lv7_f1_c3 phases=1 bus1=hv_f0_lv7_f1_c3.1 conn=w kv=0.23 kw=1 kvar=1 model=1 status=variable daily=Load_shape_204 vminpu=0.5 vmaxpu=1.5
new load.hv_f0_lv7_f1_c4 phases=1 bus1=hv_f0_lv7_f1_c4.2 conn=w kv=0.23 kw=1 kvar=1 model=1 status=variable daily=Load_shape_291 vminpu=0.5 vmaxpu=1.5